*EXP.DETAILS: MCSE2002SQ KBS LTER TREATMENT 2 (NT)

*GENERAL
@PEOPLE
Eeswaran Rasu, A. Pouyan Nejadhashemi
@ADDRESS
Michigan State University, East Lansing, MI
@SITE
W.K. Kellogg Biological Station
@NOTES
The KBS Long-Term Ecological Research in Row-Crop Agriculture Site (LTER) Treatment 1
Support for this research was also provided by the NSF Long-term Ecological Research 
 Program (DEB 1637653) at the Kellogg Biological Station and by Michigan State 
 University AgBioResearch.
For further information see the KBS LTER web site at http://lter.kbs.msu.edu.


*TREATMENTS                        -------------FACTOR LEVELS------------
@N R O C TNAME.................... CU FL SA IC MP MI MF MR MC MT ME MH SM
 1 1 1 0 TREAT 2 MZ                 6  1  1  1  1  0  1  0  0  1  0  1  1
 1 2 1 0 TREAT 2 FA                 2  1  0  0  2  0  0  0  0  0  0  2  1
 1 3 1 0 TREAT 2 SB                 3  1  0  0  3  0  0  0  0  2  0  3  1
 1 4 1 0 TREAT 2 FA                 2  1  0  0  4  0  0  0  0  0  0  4  1
 1 5 1 0 TREAT 2 MZ                 6  1  0  0  5  0  2  0  0  3  0  5  1
 1 6 1 0 TREAT 2 FA                 2  1  0  0  6  0  0  0  0  0  0  6  1
 1 7 1 0 TREAT 2 SB                 3  1  0  0  7  0  0  0  0  4  0  7  1
 1 8 1 0 TREAT 2 FA                 2  1  0  0  8  0  0  0  0  0  0  8  1
 1 9 1 0 TREAT 2 MZ 1993            6  1  0  0  9  0  3  0  0  5  0  9  1
 110 1 0 TREAT 2 FA                 2  1  0  0 10  0  0  0  0  0  0 10  1
 111 1 0 TREAT 2 SB 1994            3  1  0  0 11  0  0  0  0  6  0 11  1
 112 1 0 TREAT 2 FA                 2  1  0  0 12  0  0  0  0  0  0 12  1
 113 1 0 TREAT 2 WH 1995            5  1  0  0 13  0  4  0  0  7  0 13  1
 114 1 0 TREAT 2 FA                 2  1  0  0 14  0  0  0  0  0  0 14  1
 115 1 0 TREAT 2 MZ 1996            6  1  0  0 15  0  5  0  0  8  0 15  1
 116 1 0 TREAT 2 FA                 2  1  0  0 16  0  0  0  0  0  0 16  1
 117 1 0 TREAT 2 SB 1997            3  1  0  0 17  0  0  0  0  9  0 17  1
 118 1 0 TREAT 2 FA                 2  1  0  0 18  0  0  0  0  0  0 18  1
 119 1 0 TREAT 2 WH 1998            5  1  0  0 19  0  6  0  0 10  0 19  1
 120 1 0 TREAT 2 FA                 2  1  0  0 20  0  0  0  0  0  0 20  1
 121 1 0 TREAT 2 MZ 1999            6  1  0  0 21  0  7  0  0 11  0 21  1
 122 1 0 TREAT 2 FA                 2  1  0  0 22  0  0  0  0  0  0 22  1
 123 1 0 TREAT 2 SB 2000            3  1  0  0 23  0  0  0  0 12  0 23  1
 124 1 0 TREAT 2 FA                 2  1  0  0 24  0  0  0  0  0  0 24  1
 125 1 0 TREAT 2 WH 2001            5  1  0  0 25  0  8  0  0 13  0 25  1
 126 1 0 TREAT 2 FA                 2  1  0  0 26  0  0  0  0  0  0 26  1
 127 1 0 TREAT 2 MZ 2002            6  1  0  0 27  0  9  0  0 14  0 27  1
 128 1 0 TREAT 2 FA                 2  1  0  0 28  0 10  0  0  0  0 28  1
 129 1 0 TREAT 2 SB 2003            3  1  0  0 29  0  0  0  0 15  0 29  1
 130 1 0 TREAT 2 FA                 2  1  0  0 30  0 11  0  0  0  0 30  1
 131 1 0 TREAT 2 WH 2004            5  1  0  0 31  0 12  0  0 16  0 31  1
 132 1 0 TREAT 2 FA                 2  1  0  0 32  0  0  0  0  0  0 32  1
 133 1 0 TREAT 2 MZ 2005            4  0  0  0 33  0 13  0  0 17  0 33  1
 134 1 0 TREAT 2 FA                 2  1  0  0 34  0  0  0  0  0  0 34  1
 135 1 0 TREAT 2 SB 2006            3  1  0  0 35  0  0  0  0 18  0 35  1
 136 1 0 TREAT 2 FA                 2  1  0  0 36  0  0  0  0  0  0 36  1
 137 1 0 TREAT 2 WH 2007            5  1  0  0 37  0 14  0  0 19  0 37  1
 138 1 0 TREAT 2 FA                 2  1  0  0 38  0  0  0  0  0  0 38  1
 139 1 0 TREAT 2 MZ 2008            6  1  0  0 39  0 15  0  0 20  0 39  1
 140 1 0 TREAT 2 FA                 2  1  0  0 40  0  0  0  0  0  0 40  1
 141 1 0 TREAT 2 SB 2009            3  1  0  0 41  0  0  0  0 21  0 41  1
 142 1 0 TREAT 2 FA                 2  1  0  0 42  0  0  0  0  0  0 42  1
 143 1 0 TREAT 2 WH 2010            5  1  0  0 43  0 16  0  0 22  0 43  1
 144 1 0 TREAT 2 FA                 2  1  0  0 44  0  0  0  0  0  0 44  1
 145 1 0 TREAT 2 MZ 2011            4  1  0  0 45  0 17  0  0 23  0 45  1
 146 1 0 TREAT 2 FA                 2  1  0  0 46  0 18  0  0  0  0 46  1
 147 1 0 TREAT 2 SB 2012            3  1  0  0 47  0  0  0  0 24  0 47  1
 148 1 0 TREAT 2 FA                 2  1  0  0 48  0  0  0  0  0  0 48  1
 149 1 0 TREAT 2 WH 2013            5  1  0  0 49  0 19  0  0 25  0 49  1
 150 1 0 TREAT 2 FA                 2  1  0  0 50  0  0  0  0  0  0 50  1
 151 1 0 TREAT 2 MZ 2014            6  1  0  0 51  0 20  0  0 26  0 51  1
 152 1 0 TREAT 2 FA                 2  1  0  0 52  0  0  0  0  0  0 52  1
 153 1 0 TREAT 2 SB 2015            3  1  0  0 53  0  0  0  0 27  0 53  1
 154 1 0 TREAT 2 FA                 2  1  0  0 54  0  0  0  0  0  0 54  1
 155 1 0 TREAT 2 WH 2016            5  1  0  0 55  0 21  0  0 28  0 55  1
 156 1 0 TREAT 2 FA                 2  1  0  0 56  0  0  0  0  0  0 56  1
 157 1 0 TREAT 2 MZ 2017            4  1  0  0 57  0 22  0  0 29  0 57  1
 158 1 0 TREAT 2 FA                 2  1  0  0 58  0  0  0  0  0  0 58  1
 159 1 0 TREAT 2 SB 2018            3  1  0  0 59  0  0  0  0 30  0 59  1
 160 1 0 TREAT 2 FA                 2  1  0  0 60  0  0  0  0  0  0 60  1
 161 1 0 TREAT 2 WH 2019            5  1  0  0 61  0 23  0  0 31  0 61  1
 162 1 0 TREAT 2 FA                 2  1  0  0 62  0  0  0  0  0  0 62  1

*CULTIVARS
@C CR INGENO CNAME
 1 MZ IB0089 GREAT LAKES 582
 2 FA IB0001 FALLOW
 3 SB 990002 -99
 4 MZ IB0090 GL 482
 5 WH IB0488 NEWTON (Chelsea soft whit
 6 MZ IB0093 GL 582 MOD KBS

*FIELDS
@L ID_FIELD WSTA....  FLSA  FLOB  FLDT  FLDD  FLDS  FLST SLTX  SLDP  ID_SOIL    FLNAME
 1 MSLT0001 MSKB         0     0 DR000   150     0 00000 -99    150  MSKB890006 -99
@L ...........XCRD ...........YCRD .....ELEV .............AREA .SLEN .FLWR .SLAS FLHST FHDUR
 1               0               0         0                 0     0     0     0   -99   -99

*SOIL ANALYSIS
@A SADAT  SMHB  SMPX  SMKE  SANAME
 1 89060 SA011 SA002 SA015  -99
@A  SABL  SADM  SAOC  SANI SAPHW SAPHB  SAPX  SAKE  SASC
 1    30   1.6   1.3   .13   5.5   -99    43    .3   -99
 1    41   1.7    .3   .05   5.7   -99    40    .3   -99
 1    69   1.8    .2   .04   5.3   -99    37    .4   -99
 1    88   1.9   .07   .04   5.2   -99    34    .4   -99
 1   152   2.1   .02   .02   5.6   -99    30    .4   -99

*INITIAL CONDITIONS
@C   PCR ICDAT  ICRT  ICND  ICRN  ICRE  ICWD ICRES ICREN ICREP ICRIP ICRID ICNAME
 1    SB 89060  3000     0     1     1   -99  3000     1    .7   100    15 -99
@C  ICBL  SH2O  SNH4  SNO3
 1    10  .237    .5   5.7
 1    22  .237    .2   3.3
 1    31  .237    .2   2.3
 1    41  .253    .5     1

*PLANTING DETAILS
@P PDATE EDATE  PPOP  PPOE  PLME  PLDS  PLRS  PLRD  PLDP  PLWT  PAGE  PENV  PLPH  SPRL                        PLNAME
 1 89124   -99   6.2   6.2     S     R    76     0     5   -99   -99   -99   -99     0                        -99
 2 89297   -99     1     1     S     R     1     0     5   -99   -99   -99   -99     0                        -99
 3 90149   -99    40    40     S     R    20     0     5   -99   -99   -99   -99     0                        -99
 4 90291   -99     1     1     S     R     1     0     5   -99   -99   -99   -99     0                        -99
 5 91166   -99   6.2   6.2     S     R    76     0     5   -99   -99   -99   -99     0                        -99
 6 91284   -99     1     1     S     R     1     0     5   -99   -99   -99   -99     0                        -99
 7 92139   -99    40    40     S     R    20     0     5   -99   -99   -99   -99     0                        -99
 8 92301   -99     1     1     S     R     1     0     5   -99   -99   -99   -99     0                        -99
 9 93127   -99   6.4   6.4     S     R    76     0     5   -99   -99   -99   -99     0                        -99
10 93313   -99     1     1     S     R     1     0     5   -99   -99   -99   -99     0                        -99
11 94138   -99    40    40     S     R    20     0     5   -99   -99   -99   -99     0                        -99
12 94285   -99     1     1     S     R     1     0     5   -99   -99   -99   -99     0                        -99
13 94286   -99   400   400     S     R    15     0     5   -99   -99   -99   -99     0                        -99
14 95204   -99     1     1     S     R     1     0     5   -99   -99   -99   -99     0                        -99
15 96135   -99   6.4   6.4     S     R    76     0     5   -99   -99   -99   -99     0                        -99
16 96309   -99     1     1     S     R     1     0     5   -99   -99   -99   -99     0                        -99
17 97142   -99    40    40     S     R    20     0     5   -99   -99   -99   -99     0                        -99
18 97291   -99     1     1     S     R     1     0     5   -99   -99   -99   -99     0                        -99
19 97295   -99   400   400     S     R    15     0     5   -99   -99   -99   -99     0                        -99
20 98193   -99     1     1     S     R     1     0     5   -99   -99   -99   -99     0                        -99
21 99139   -99   6.4   6.4     S     R    76     0     5   -99   -99   -99   -99     0                        -99
22 99279   -99     1     1     S     R     1     0     5   -99   -99   -99   -99     0                        -99
23 00146   -99    40    40     S     R    20     0     5   -99   -99   -99   -99     0                        -99
24 00286   -99     1     1     S     R     1     0     5   -99   -99   -99   -99     0                        -99
25 00304   -99   400   400     S     R    15     0     5   -99   -99   -99   -99     0                        -99
26 01199   -99     1     1     S     R     1     0     5   -99   -99   -99   -99     0                        -99
27 02130   -99   6.4   6.4     S     R    76     0     5   -99   -99   -99   -99     0                        -99
28 02302   -99     1     1     S     R     1     0     5   -99   -99   -99   -99     0                        -99
29 03148   -99    40    40     S     R    20     0     5   -99   -99   -99   -99     0                        -99
30 03280   -99     1     1     S     R     1     0     5   -99   -99   -99   -99     0                        -99
31 03283   -99   400   400     S     R    15     0     5   -99   -99   -99   -99     0                        -99
32 04196   -99     1     1     S     R     1     0     5   -99   -99   -99   -99     0                        -99
33 05124   -99   6.4   6.4     S     R    76     0     5   -99   -99   -99   -99     0                        -99
34 05285   -99     1     1     S     R     1     0     5   -99   -99   -99   -99     0                        -99
35 06156   -99    40    40     S     R    20     0     5   -99   -99   -99   -99     0                        -99
36 06284   -99     1     1     S     R     1     0     5   -99   -99   -99   -99     0                        -99
37 06310   -99   400   400     S     R    15     0     5   -99   -99   -99   -99     0                        -99
38 07192   -99     1     1     S     R     1     0     5   -99   -99   -99   -99     0                        -99
39 08130   -99   6.4   6.4     S     R    76     0     5   -99   -99   -99   -99     0                        -99
40 08295   -99     1     1     S     R     1     0     5   -99   -99   -99   -99     0                        -99
41 09140   -99    40    40     S     R    20     0     5   -99   -99   -99   -99     0                        -99
42 09290   -99     1     1     S     R     1     0     5   -99   -99   -99   -99     0                        -99
43 09310   -99   400   400     S     R    15     0     5   -99   -99   -99   -99     0                        -99
44 10196   -99     1     1     S     R     1     0     5   -99   -99   -99   -99     0                        -99
45 11129   -99   6.4   6.4     S     R    76     0     5   -99   -99   -99   -99     0                        -99
46 11319   -99     1     1     S     R     1     0     5   -99   -99   -99   -99     0                        -99
47 12140   -99    40    40     S     R    20     0     5   -99   -99   -99   -99     0                        -99
48 12286   -99     1     1     S     R     1     0     5   -99   -99   -99   -99     0                        -99
49 12312   -99   400   400     S     R    15     0     5   -99   -99   -99   -99     0                        -99
50 13206   -99     1     1     S     R     1     0     5   -99   -99   -99   -99     0                        -99
51 14140   -99   6.4   6.4     S     R    76     0     5   -99   -99   -99   -99     0                        -99
52 14304   -99     1     1     S     R     1     0     5   -99   -99   -99   -99     0                        -99
53 15139   -99    40    40     S     R    20     0     5   -99   -99   -99   -99     0                        -99
54 15274   -99     1     1     S     R     1     0     5   -99   -99   -99   -99     0                        -99
55 15279   -99   400   400     S     R    15     0     5   -99   -99   -99   -99     0                        -99
56 16195   -99     1     1     S     R     1     0     5   -99   -99   -99   -99     0                        -99
57 17136   -99   6.4   6.4     S     R    76     0     5   -99   -99   -99   -99     0                        -99
58 17292   -99     1     1     S     R     1     0     5   -99   -99   -99   -99     0                        -99
59 18147   -99    40    40     S     R    20     0     5   -99   -99   -99   -99     0                        -99
60 18283   -99     1     1     S     R     1     0     5   -99   -99   -99   -99     0                        -99
61 18292   -99   400   400     S     R    15     0     5   -99   -99   -99   -99     0                        -99
62 19206   -99     1     1     S     R     1     0     5   -99   -99   -99   -99     0                        -99

*IRRIGATION AND WATER MANAGEMENT
@I  EFIR  IDEP  ITHR  IEPT  IOFF  IAME  IAMT IRNAME
 1     1    30    50   100 GS000 IR001    10 -99
@I IDATE  IROP IRVAL
 1 89060   -99   -99

*FERTILIZERS (INORGANIC)
@F FDATE  FMCD  FACD  FDEP  FAMN  FAMP  FAMK  FAMC  FAMO  FOCD FERNAME
 1 89177 FE001 AP001     1   124     0     0     0     0   -99 -99
 2 91166 FE001 AP001     1   124     0     0     0     0   -99 -99
 3 93181 FE001 AP001     1    84     0     0     0     0   -99 -99
 4 95107 FE001 AP001     1    56     0     0     0     0   -99 -99
 5 96135 FE010 AP009    10    28     0     0     0     0   -99 -99
 5 96179 FE001 AP001     1   135     0     0     0     0   -99 -99
 6 98001 FE014 AP001     1     0    45     0     0     0   -99 -99
 6 98110 FE001 AP001     1    56     0     0     0     0   -99 -99
 7 99139 FE001 AP009    10    27     0     0     0     0   -99 -99
 7 99181 FE001 AP001     1    88     0     0     0     0   -99 -99
 8 01095 FE010 AP009    10    42     0     0     0     0   -99 -99
 8 01108 FE010 AP009    10    42     0     0     0     0   -99 -99
 9 02130 FE014 AP001     1     0    11     0     0     0   -99 -99
 9 02130 FE010 AP009    10    28     0     0     0     0   -99 -99
 9 02182 FE010 AP009    10   134     0     0     0     0   -99 -99
10 03116 FE007 AP001     1     7    29     0     0     0   -99 -99
11 03281 FE010 AP009    10    36     0     0     0     0   -99 -99
11 03281 FE014 AP001     1     0    36     0     0     0   -99 -99
12 04107 FE010 AP009    10    54     0     0     0     0   -99 -99
13 05124 FE010 AP009    10    33    13     0     0     0   -99 -99
13 05171 FE010 AP009    10   124     0     0     0     0   -99 -99
14 07089 FE010 AP009    10    32    32     0     0     0   -99 -99
14 07114 FE010 AP009    10    54     0     0     0     0   -99 -99
15 08130 FE010 AP009    10    33    13     0     0     0   -99 -99
15 08171 FE010 AP009    10   114     0     0     0     0   -99 -99
16 10119 FE010 AP009    10    37     0     0     0     0   -99 -99
17 11129 FE010 AP009    10    33    13     0     0     0   -99 -99
17 11166 FE010 AP009    10   124     0     0     0     0   -99 -99
18 12110 FE007 AP001     1     8    35     0     0     0   -99 -99
19 13122 FE010 AP009    10    91     0     0     0     0   -99 -99
20 14132 FE010 AP009    10    33    13     0     0     0   -99 -99
20 14140 FE010 AP009    10    33    13     0     0     0   -99 -99
20 14168 FE010 AP009    10   134     0     0     0     0   -99 -99
21 16081 FE010 AP009    10    34     0     0     0     0   -99 -99
21 16096 FE007 AP001     1    24    50     0     0     0   -99 -99
21 16115 FE010 AP009    10    38     0     0     0     0   -99 -99
22 17136 FE007 AP001     1    33    13     0     0     0   -99 -99
22 17172 FE010 AP009    10   138     0     0     0     0   -99 -99
23 19085 FE010 AP009    10    34     0     0     0     0   -99 -99
23 19087 FE007 AP001     1    24    50     0     0     0   -99 -99

*RESIDUES AND ORGANIC FERTILIZER
@R RDATE  RCOD  RAMT  RESN  RESP  RESK  RINP  RDEP  RMET RENAME
 1 89060   -99   -99   -99   -99   -99   -99   -99   -99 -99

*CHEMICAL APPLICATIONS
@C CDATE CHCOD CHAMT  CHME CHDEP   CHT..CHNAME
 1 89060   -99   -99   -99   -99   -99  -99

*TILLAGE AND ROTATIONS
@T TDATE TIMPL  TDEP TNAME
 1 89124 TI031     5 -99
 2 90149 TI031     5 -99
 3 91166 TI031     5 -99
 4 92139 TI031     5 -99
 5 93127 TI031     5 -99
 6 94138 TI031     5 -99
 7 94286 TI031     5 -99
 8 96135 TI031     5 -99
 9 97142 TI031     5 -99
10 97295 TI031     5 -99
11 99139 TI031     5 -99
12 00146 TI031     5 -99
13 00304 TI031     5 -99
14 02130 TI031     5 -99
15 03148 TI031     5 -99
16 03283 TI031     5 -99
17 05124 TI031     5 -99
18 06156 TI031     5 -99
19 06310 TI031     5 -99
20 08130 TI031     5 -99
21 09140 TI031     5 -99
22 09310 TI031     5 -99
23 11129 TI031     5 -99
24 12140 TI031     5 -99
25 12312 TI031     5 -99
26 14140 TI031     5 -99
27 15139 TI031     5 -99
28 15279 TI031     5 -99
29 17136 TI031     5 -99
30 18147 TI031     5 -99
31 18292 TI031     5 -99

*ENVIRONMENT MODIFICATIONS
@E ODATE EDAY  ERAD  EMAX  EMIN  ERAIN ECO2  EDEW  EWIND ENVNAME  
 1 89060 A   0 A   0 A   0 A   0 A 0.0 A   0 A   0 A   0 

*HARVEST DETAILS
@H HDATE  HSTG  HCOM HSIZE   HPC  HBPC HNAME
 1 89296 GS000   -99   -99   100     0 
 2 90148 GS000   -99   -99   100     0 
 3 90290 GS000   -99   -99   100     0 
 4 91165 GS000   -99   -99   100     0 
 5 91283 GS000   -99   -99   100     0 
 6 92138 GS000   -99   -99   100     0 
 7 92300 GS000   -99   -99   100     0 
 8 93126 GS000   -99   -99   100     0 
 9 93312 GS000   -99   -99   100     0 
10 94137 GS000   -99   -99   100     0 
11 94284 GS000   -99   -99   100     0 
12 94285 GS000   -99   -99   100     0 
13 95203 GS000   -99   -99   100    90 
14 96134 GS000   -99   -99   100     0 
15 96308 GS000   -99   -99   100     0 
16 97141 GS000   -99   -99   100     0 
17 97290 GS000   -99   -99   100     0 
18 97294 GS000   -99   -99   100     0 
19 98192 GS000   -99   -99   100    90 
20 99138 GS000   -99   -99   100     0 
21 99278 GS000   -99   -99   100     0 
22 00145 GS000   -99   -99   100     0 
23 00285 GS000   -99   -99   100     0 
24 00303 GS000   -99   -99   100     0 
25 01198 GS000   -99   -99   100    90 
26 02129 GS000   -99   -99   100     0 
27 02301 GS000   -99   -99   100     0 
28 03147 GS000   -99   -99   100     0 
29 03279 GS000   -99   -99   100     0 
30 03282 GS000   -99   -99   100     0 
31 04195 GS000   -99   -99   100    90 
32 05123 GS000   -99   -99   100     0 
33 05284 GS000   -99   -99   100     0 
34 06155 GS000   -99   -99   100     0 
35 06283 GS000   -99   -99   100     0 
36 06309 GS000   -99   -99   100     0 
37 07191 GS000   -99   -99   100    90 
38 08129 GS000   -99   -99   100     0 
39 08294 GS000   -99   -99   100     0 
40 09139 GS000   -99   -99   100     0 
41 09289 GS000   -99   -99   100     0 
42 09309 GS000   -99   -99   100     0 
43 10195 GS000   -99   -99   100    90 
44 11128 GS000   -99   -99   100     0 
45 11318 GS000   -99   -99   100     0 
46 12139 GS000   -99   -99   100     0 
47 12285 GS000   -99   -99   100     0 
48 12311 GS000   -99   -99   100     0 
49 13205 GS000   -99   -99   100    90 
50 14139 GS000   -99   -99   100     0 
51 14303 GS000   -99   -99   100     0 
52 15138 GS000   -99   -99   100     0 
53 15273 GS000   -99   -99   100     0 
54 15278 GS000   -99   -99   100     0 
55 16194 GS000   -99   -99   100    90 
56 17135 GS000   -99   -99   100     0 
57 17291 GS000   -99   -99   100     0 
58 18146 GS000   -99   -99   100     0 
59 18282 GS000   -99   -99   100     0 
60 18291 GS000   -99   -99   100     0 
61 19205 GS000   -99   -99   100    90 
62 19365 GS000   -99   -99   100     0 

*SIMULATION CONTROLS
@N GENERAL     NYERS NREPS START SDATE RSEED SNAME.................... SMODEL
 1 GE             30     1     S 89060  2150 Standard
@N OPTIONS     WATER NITRO SYMBI PHOSP POTAS DISES  CHEM  TILL   CO2
 1 OP              Y     Y     Y     N     N     N     N     Y     M
@N METHODS     WTHER INCON LIGHT EVAPO INFIL PHOTO HYDRO NSWIT MESOM MESEV MESOL
 1 ME              M     M     E     R     S     C     R     1     P     S     2
@N MANAGEMENT  PLANT IRRIG FERTI RESID HARVS
 1 MA              R     R     R     R     R
@N OUTPUTS     FNAME OVVEW SUMRY FROPT GROUT CAOUT WAOUT NIOUT MIOUT DIOUT VBOSE CHOUT OPOUT FMOPT
 1 OU              Y     Y     Y     1     Y     Y     Y     Y     Y     N     Y     N     Y     A

@  AUTOMATIC MANAGEMENT
@N PLANTING    PFRST PLAST PH2OL PH2OU PH2OD PSTMX PSTMN
 1 PL          89117 89131    40   100    30    40    10
@N IRRIGATION  IMDEP ITHRL ITHRU IROFF IMETH IRAMT IREFF
 1 IR             30    50   100 GS000 IR001    10     1
@N NITROGEN    NMDEP NMTHR NAMNT NCODE NAOFF
 1 NI             30    50    25 FE001 GS000
@N RESIDUES    RIPCN RTIME RIDEP
 1 RE            100     1    20
@N HARVEST     HFRST HLAST HPCNP HPCNR
 1 HA              0 90124   100     0



